<?xml version="1.0" encoding="UTF-8"?>

<!-- generated on 2023-04-10 16:23:14 by Eclipse SUMO netedit Version 1.15.0
<configuration xmlns:xsi="http://www.w3.org/2001/XMLSchema-instance" xsi:noNamespaceSchemaLocation="http://sumo.dlr.de/xsd/netconvertConfiguration.xsd">

    <output>
        <output-file value="D:\sumo-1.15.0\file\sumo-JBuilding\on-off-ramp.net.xml"/>
    </output>

    <processing>
        <offset.disable-normalization value="true"/>
    </processing>

    <junctions>
        <no-turnarounds value="true"/>
    </junctions>

</configuration>
-->

<net version="1.9" junctionCornerDetail="5" limitTurnSpeed="5.50" xmlns:xsi="http://www.w3.org/2001/XMLSchema-instance" xsi:noNamespaceSchemaLocation="http://sumo.dlr.de/xsd/net_file.xsd">

    <location netOffset="0.00,0.00" convBoundary="0.00,-200.00,2300.00,0.00" origBoundary="10000000000.00,10000000000.00,-10000000000.00,-10000000000.00" projParameter="!"/>

    <edge id=":J1_0" function="internal">
        <lane id=":J1_0_0" index="0" speed="12.33" length="8.76" shape="985.24,-11.76 987.33,-10.18 988.79,-9.00 990.38,-8.26 992.87,-8.00"/>
    </edge>
    <edge id=":J1_1" function="internal">
        <lane id=":J1_1_0" index="0" speed="13.89" length="8.77" shape="984.10,-8.00 992.87,-8.00"/>
        <lane id=":J1_1_1" index="1" speed="13.89" length="8.77" shape="984.10,-4.80 992.87,-4.80"/>
        <lane id=":J1_1_2" index="2" speed="13.89" length="8.77" shape="984.10,-1.60 992.87,-1.60"/>
    </edge>
    <edge id=":J2_0" function="internal">
        <lane id=":J2_0_0" index="0" speed="12.33" length="8.76" shape="1307.13,-8.00 1309.62,-8.26 1311.21,-9.00 1312.67,-10.18 1314.76,-11.76"/>
    </edge>
    <edge id=":J2_1" function="internal">
        <lane id=":J2_1_0" index="0" speed="13.89" length="8.77" shape="1307.13,-8.00 1315.90,-8.00"/>
        <lane id=":J2_1_1" index="1" speed="13.89" length="8.77" shape="1307.13,-4.80 1315.90,-4.80"/>
        <lane id=":J2_1_2" index="2" speed="13.89" length="8.77" shape="1307.13,-1.60 1315.90,-1.60"/>
    </edge>

    <edge id="E0" from="J0" to="J1" priority="-1">
        <lane id="E0_0" index="0" speed="13.89" length="984.10" shape="0.00,-8.00 984.10,-8.00"/>
        <lane id="E0_1" index="1" speed="13.89" length="984.10" shape="0.00,-4.80 984.10,-4.80"/>
        <lane id="E0_2" index="2" speed="13.89" length="984.10" shape="0.00,-1.60 984.10,-1.60"/>
    </edge>
    <edge id="E1" from="J1" to="J2" priority="-1">
        <lane id="E1_0" index="0" speed="13.89" length="314.26" shape="992.87,-8.00 1307.13,-8.00"/>
        <lane id="E1_1" index="1" speed="13.89" length="314.26" shape="992.87,-4.80 1307.13,-4.80"/>
        <lane id="E1_2" index="2" speed="13.89" length="314.26" shape="992.87,-1.60 1307.13,-1.60"/>
    </edge>
    <edge id="E2" from="J2" to="J3" priority="-1">
        <lane id="E2_0" index="0" speed="13.89" length="984.10" shape="1315.90,-8.00 2300.00,-8.00"/>
        <lane id="E2_1" index="1" speed="13.89" length="984.10" shape="1315.90,-4.80 2300.00,-4.80"/>
        <lane id="E2_2" index="2" speed="13.89" length="984.10" shape="1315.90,-1.60 2300.00,-1.60"/>
    </edge>
    <edge id="E3" from="J4" to="J1" priority="-1">
        <lane id="E3_0" index="0" speed="13.89" length="341.75" shape="700.89,-201.33 985.24,-11.76"/>
    </edge>
    <edge id="E4" from="J2" to="J5" priority="-1">
        <lane id="E4_0" index="0" speed="13.89" length="341.75" shape="1314.76,-11.76 1599.11,-201.33"/>
    </edge>

    <junction id="J0" type="dead_end" x="0.00" y="0.00" incLanes="" intLanes="" shape="0.00,0.00 0.00,-9.60"/>
    <junction id="J1" type="priority" x="1000.00" y="0.00" incLanes="E3_0 E0_0 E0_1 E0_2" intLanes=":J1_0_0 :J1_1_0 :J1_1_1 :J1_1_2" shape="992.87,0.00 992.87,-9.60 990.14,-10.04 989.26,-10.56 988.44,-11.25 987.46,-12.10 986.13,-13.09 984.35,-10.43 984.10,-9.60 984.10,0.00">
        <request index="0" response="1110" foes="1110" cont="0"/>
        <request index="1" response="0000" foes="0001" cont="0"/>
        <request index="2" response="0000" foes="0001" cont="0"/>
        <request index="3" response="0000" foes="0001" cont="0"/>
    </junction>
    <junction id="J2" type="priority" x="1300.00" y="0.00" incLanes="E1_0 E1_1 E1_2" intLanes=":J2_0_0 :J2_1_0 :J2_1_1 :J2_1_2" shape="1315.90,0.00 1315.90,-9.60 1315.65,-10.43 1313.87,-13.09 1311.56,-11.25 1310.74,-10.56 1309.86,-10.04 1308.73,-9.71 1307.13,-9.60 1307.13,0.00">
        <request index="0" response="0000" foes="0000" cont="0"/>
        <request index="1" response="0000" foes="0000" cont="0"/>
        <request index="2" response="0000" foes="0000" cont="0"/>
        <request index="3" response="0000" foes="0000" cont="0"/>
    </junction>
    <junction id="J3" type="dead_end" x="2300.00" y="0.00" incLanes="E2_0 E2_1 E2_2" intLanes="" shape="2300.00,-9.60 2300.00,0.00"/>
    <junction id="J4" type="dead_end" x="700.00" y="-200.00" incLanes="" intLanes="" shape="700.00,-200.00 701.78,-202.66"/>
    <junction id="J5" type="dead_end" x="1600.00" y="-200.00" incLanes="E4_0" intLanes="" shape="1598.22,-202.66 1600.00,-200.00"/>

    <connection from="E0" to="E1" fromLane="0" toLane="0" via=":J1_1_0" dir="s" state="M"/>
    <connection from="E0" to="E1" fromLane="1" toLane="1" via=":J1_1_1" dir="s" state="M"/>
    <connection from="E0" to="E1" fromLane="2" toLane="2" via=":J1_1_2" dir="s" state="M"/>
    <connection from="E1" to="E4" fromLane="0" toLane="0" via=":J2_0_0" dir="R" state="M"/>
    <connection from="E1" to="E2" fromLane="0" toLane="0" via=":J2_1_0" dir="s" state="M"/>
    <connection from="E1" to="E2" fromLane="1" toLane="1" via=":J2_1_1" dir="s" state="M"/>
    <connection from="E1" to="E2" fromLane="2" toLane="2" via=":J2_1_2" dir="s" state="M"/>
    <connection from="E3" to="E1" fromLane="0" toLane="0" via=":J1_0_0" dir="s" state="m"/>

    <connection from=":J1_0" to="E1" fromLane="0" toLane="0" dir="s" state="M"/>
    <connection from=":J1_1" to="E1" fromLane="0" toLane="0" dir="s" state="M"/>
    <connection from=":J1_1" to="E1" fromLane="1" toLane="1" dir="s" state="M"/>
    <connection from=":J1_1" to="E1" fromLane="2" toLane="2" dir="s" state="M"/>
    <connection from=":J2_0" to="E4" fromLane="0" toLane="0" dir="R" state="M"/>
    <connection from=":J2_1" to="E2" fromLane="0" toLane="0" dir="s" state="M"/>
    <connection from=":J2_1" to="E2" fromLane="1" toLane="1" dir="s" state="M"/>
    <connection from=":J2_1" to="E2" fromLane="2" toLane="2" dir="s" state="M"/>

</net>
