<routes>
    <flow id="1" type="1" color="1" begin="" end="" from="" to=""
     number="" departLane="" arrivalLane=""
    </flow>
</routes>
