<routes>
    <flow id="1" type="" color="1" begin="" end="" from="" to=""
     number="" departLane="" arrivalLane=""
    </flow>
</routes>
